[TITLE]
;;Project Title/Notes

[OPTIONS]
;;Option             Value
FLOW_UNITS           CMS
INFILTRATION         HORTON
FLOW_ROUTING         DYNWAVE
LINK_OFFSETS         DEPTH
MIN_SLOPE            0
ALLOW_PONDING        NO
SKIP_STEADY_STATE    NO

START_DATE           12/05/2019
START_TIME           00:00:00
REPORT_START_DATE    12/05/2019
REPORT_START_TIME    00:00:00
END_DATE             12/05/2019
END_TIME             03:00:00
SWEEP_START          01/01
SWEEP_END            12/31
DRY_DAYS             0
REPORT_STEP          00:05:00
WET_STEP             00:05:00
DRY_STEP             01:00:00
ROUTING_STEP         0:00:10 
RULE_STEP            00:00:00

INERTIAL_DAMPING     PARTIAL
NORMAL_FLOW_LIMITED  BOTH
FORCE_MAIN_EQUATION  H-W
VARIABLE_STEP        0.75
LENGTHENING_STEP     0
MIN_SURFAREA         1.167
MAX_TRIALS           20
HEAD_TOLERANCE       0.0015
SYS_FLOW_TOL         5
LAT_FLOW_TOL         5
MINIMUM_STEP         0.5
THREADS              1

[EVAPORATION]
;;Data Source    Parameters
;;-------------- ----------------
CONSTANT         0.0
DRY_ONLY         NO

[JUNCTIONS]
;;Name           Elevation  MaxDepth   InitDepth  SurDepth   Aponded   
;;-------------- ---------- ---------- ---------- ---------- ----------
M2334098         0.333      2.000      0          0          0         
M2334097         0.313      2.000      0          0          0         
M2334096         0.303      3.150      0          0          0         
M2343123         0.053      3.310      0          0          0         
M2341119         -0.067     3.210      0          0          0         
M2341120         -0.227     3.020      0          0          0         
M2341121         -0.547     3.270      0          0          0         
M2341060         -0.667     2.670      0          0          0         
M2341059         -0.907     3.400      0          0          0         
M2341057         -1.117     3.490      0          0          0         
M2323042         -1.297     3.500      0          0          0         
M2323041         -1.507     3.590      0          0          0         
M2323040         -1.737     3.270      0          0          0         
M2323038         -1.847     3.320      0          0          0         
M2323036         -2.207     3.090      0          0          0         
M2323065         -2.407     3.450      0          0          0         
M2323006         -2.597     3.590      0          0          0         

[OUTFALLS]
;;Name           Elevation  Type       Stage Data       Gated    Route To        
;;-------------- ---------- ---------- ---------------- -------- ----------------
Renseanlaeg      0          FREE                        NO                       

[STORAGE]
;;Name           Elev.    MaxDepth   InitDepth  Shape      Curve Name/Params            N/A      Fevap    Psi      Ksat     IMD     
;;-------------- -------- ---------- ----------- ---------- ---------------------------- -------- --------          -------- --------
B2334099PSA256   -2.437   5.240      0          FUNCTIONAL 0         0         6.539    0        0       
B2323037O398     -2.067   2.850      0          FUNCTIONAL 0         0         7.011    0        0       
B2323069         -3.787   5.697      1.1        FUNCTIONAL 0         0         29.9432  0        0       

[CONDUITS]
;;Name           From Node        To Node          Length     Roughness  InOffset   OutOffset  InitFlow   MaxFlow   
;;-------------- ---------------- ---------------- ---------- ---------- ---------- ---------- ---------- ----------
L2747            M2334098         M2334097         4.389      0.011      0.000      0.000      0.000      0.000     
L2746            M2334097         M2334096         42.247     0.011      0.000      0.000      0.000      0.000     
L2745            M2334096         M2343123         77.795     0.011      0.000      0.000      0.000      0.000     
L2921            M2343123         M2341119         94.352     0.011      0.000      0.000      0.000      0.000     
L2797            M2341119         M2341120         90.901     0.011      0.000      0.000      0.000      0.000     
L2798            M2341120         M2341121         173.418    0.011      0.000      0.000      0.000      0.000     
L2799            M2341121         M2341060         95.477     0.011      0.000      0.000      0.000      0.000     
L2793            M2341060         M2341059         97.302     0.011      0.000      0.000      0.000      0.000     
L2792            M2341059         M2341057         79.173     0.011      0.000      0.000      0.000      0.000     
L2791            M2341057         M2323042         86.342     0.011      0.000      0.000      0.000      0.000     
L2379            M2323042         M2323041         87.067     0.011      0.000      0.000      0.000      0.000     
L2378            M2323041         M2323040         95.973     0.011      0.000      0.000      0.000      0.000     
L2377            M2323040         M2323038         54.369     0.011      0.000      0.000      0.000      0.000     
L2374            M2323038         B2323037O398     14.428     0.011      0.000      0.000      0.000      0.000     
L2373            B2323037O398     M2323036         11.209     0.011      0.000      0.000      0.000      0.000     
L6497            M2323036         M2323065         83.112     0.011      0.000      0.000      0.000      0.000     
L2390            M2323065         M2323006         79.657     0.011      0.000      0.000      0.000      0.000     
L2354            M2323006         B2323069         19.885     0.011      0.000      1.1        0.000      0.000     

[PUMPS]
;;Name           From Node        To Node          Pump Curve       Status   Sartup Shutoff 
;;-------------- ---------------- ---------------- ---------------- ------ -------- --------
P1               B2334099PSA256   M2334098         const_curve      OFF      0        0       
P2               B2323069         Renseanlaeg      const_curve      OFF      0        0       

[XSECTIONS]
;;Link           Shape        Geom1            Geom2      Geom3      Geom4      Barrels    Culvert   
;;-------------- ------------ ---------------- ---------- ---------- ---------- ---------- ----------
L2747            CIRCULAR     1.600            0.000      0.000      0.000      1.000                
L2746            CIRCULAR     1.600            0.000      0.000      0.000      1.000                
L2745            CIRCULAR     1.600            0.000      0.000      0.000      1.000                
L2921            CIRCULAR     1.500            0.000      0.000      0.000      1.000                
L2797            CIRCULAR     1.600            0.000      0.000      0.000      1.000                
L2798            CIRCULAR     1.600            0.000      0.000      0.000      1.000                
L2799            CIRCULAR     1.600            0.000      0.000      0.000      1.000                
L2793            CIRCULAR     1.600            0.000      0.000      0.000      1.000                
L2792            CIRCULAR     1.600            0.000      0.000      0.000      1.000                
L2791            CIRCULAR     1.600            0.000      0.000      0.000      1.000                
L2379            CIRCULAR     1.600            0.000      0.000      0.000      1.000                
L2378            CIRCULAR     1.600            0.000      0.000      0.000      1.000                
L2377            CIRCULAR     1.600            0.000      0.000      0.000      1.000                
L2374            CIRCULAR     1.600            0.000      0.000      0.000      1.000                
L2373            CIRCULAR     1.600            0.000      0.000      0.000      1.000                
L6497            CIRCULAR     1.600            0.000      0.000      0.000      1.000                
L2390            CIRCULAR     1.600            0.000      0.000      0.000      1.000                
L2354            CIRCULAR     1.600            0.000      0.000      0.000      1.000                

[POLLUTANTS]
;;Name           Units  Crain      Cgw        Crdii      Kdecay     SnowOnly   Co-Pollutant     Co-Frac    Cdwf       Cinit     
;;-------------- ------ ---------- ---------- ---------- ---------- ---------- ---------------- ---------- ---------- ----------
COD              MG/L   0.000      0.000      0.000      0.990      NO         *                0.000      0.000      0.000     

[CURVES]
;;Name           Type       X-Value    Y-Value   
;;-------------- ---------- ---------- ----------
PCURVE1          PUMP2      0.100      0.500     
;
PCURVE2          PUMP2      0.100      0.500     
;
const_curve      Pump1      0          1         

[TIMESERIES]
;;Name           Date       Time       Value     
;;-------------- ---------- ---------- ----------
TS1              12/05/2019 0          1         
TS1              12/05/2019 1          0.25      
TS1              12/05/2019 2          0.1       
TS1              12/05/2019 3          0         
TS1              12/05/2019 4          0         
TS1              12/05/2019 5          0.1       
TS1              12/05/2019 6          6         
TS1              12/05/2019 7          7.5       
TS1              12/05/2019 8          5.5       
TS1              12/05/2019 9          4.5       
TS1              12/05/2019 10         4         
TS1              12/05/2019 11         3.75      
TS1              12/05/2019 12         3.5       
TS1              12/05/2019 13         3.25      
TS1              12/05/2019 14         3         
TS1              12/05/2019 15         3         
TS1              12/05/2019 16         4         
TS1              12/05/2019 17         5         
TS1              12/05/2019 18         6.25      
TS1              12/05/2019 19         6.5       
TS1              12/05/2019 20         5.25      
TS1              12/05/2019 21         5         
TS1              12/05/2019 22         4.25      
TS1              12/05/2019 23         3.75      
TS1              12/06/2019 0          1         
TS1              12/06/2019 1          0.25      
TS1              12/06/2019 2          0.1       
TS1              12/06/2019 3          0         
TS1              12/06/2019 4          0         
TS1              12/06/2019 5          0.1       
TS1              12/06/2019 6          6         
TS1              12/06/2019 7          7.5       
TS1              12/06/2019 8          5.5       
TS1              12/06/2019 9          4.5       
TS1              12/06/2019 10         4         
TS1              12/06/2019 11         3.75      
TS1              12/06/2019 12         3.5       
TS1              12/06/2019 13         3.25      
TS1              12/06/2019 14         3         
TS1              12/06/2019 15         3         
TS1              12/06/2019 16         4         
TS1              12/06/2019 17         5         
TS1              12/06/2019 18         6.25      
TS1              12/06/2019 19         6.5       
TS1              12/06/2019 20         5.25      
TS1              12/06/2019 21         5         
TS1              12/06/2019 22         4.25      
TS1              12/06/2019 23         3.75      
;
TS2              12/05/2019 0          0         
TS2              12/05/2019 1          0         
TS2              12/05/2019 2          0         
TS2              12/05/2019 3          0         
TS2              12/05/2019 4          0         
TS2              12/05/2019 5          0         
TS2              12/05/2019 6          0         
TS2              12/05/2019 7          0         
TS2              12/05/2019 8          0         
TS2              12/05/2019 9          0         
TS2              12/05/2019 10         0         
TS2              12/05/2019 11         0         
TS2              12/05/2019 12         0         
TS2              12/05/2019 13         0         
TS2              12/05/2019 14         0         
TS2              12/05/2019 15         0         
TS2              12/05/2019 16         0         
TS2              12/05/2019 17         0         
TS2              12/05/2019 18         0         
TS2              12/05/2019 19         0         
TS2              12/05/2019 20         0         
TS2              12/05/2019 21         0         
TS2              12/05/2019 22         0         
TS2              12/05/2019 23         0         
TS2              12/06/2019 0          0         
TS2              12/06/2019 1          0         
TS2              12/06/2019 2          0         
TS2              12/06/2019 3          0         
TS2              12/06/2019 4          0         
TS2              12/06/2019 5          0         
TS2              12/06/2019 6          0         
TS2              12/06/2019 7          0         
TS2              12/06/2019 8          0         
TS2              12/06/2019 9          0         
TS2              12/06/2019 10         0         
TS2              12/06/2019 11         0         
TS2              12/06/2019 12         0         
TS2              12/06/2019 13         0         
TS2              12/06/2019 14         0         
TS2              12/06/2019 15         0         
TS2              12/06/2019 16         0         
TS2              12/06/2019 17         0         
TS2              12/06/2019 18         0         
TS2              12/06/2019 19         0         
TS2              12/06/2019 20         0         
TS2              12/06/2019 21         0         
TS2              12/06/2019 22         0         
TS2              12/06/2019 23         0         
;
TS3              12/05/2019 0          0         
TS3              12/05/2019 1          0         
TS3              12/05/2019 2          0         
TS3              12/05/2019 3          0         
TS3              12/05/2019 4          0         
TS3              12/05/2019 5          0         
TS3              12/05/2019 6          0         
TS3              12/05/2019 7          0         
TS3              12/05/2019 8          0         
TS3              12/05/2019 9          0         
TS3              12/05/2019 10         0         
TS3              12/05/2019 11         0         
TS3              12/05/2019 12         0         
TS3              12/05/2019 13         0         
TS3              12/05/2019 14         0         
TS3              12/05/2019 15         0         
TS3              12/05/2019 16         0         
TS3              12/05/2019 17         0         
TS3              12/05/2019 18         0         
TS3              12/05/2019 19         0         
TS3              12/05/2019 20         0         
TS3              12/05/2019 21         0         
TS3              12/05/2019 22         0         
TS3              12/05/2019 23         0         
TS3              12/05/2019 23.1       6e-1      
TS3              12/05/2019 23.2       6e-1      
TS3              12/05/2019 23.3       0         
TS3              12/06/2019 0          0         
TS3              12/06/2019 1          0         
TS3              12/06/2019 2          0         
TS3              12/06/2019 3          0         
TS3              12/06/2019 4          0         
TS3              12/06/2019 5          0         
TS3              12/06/2019 6          0         
TS3              12/06/2019 7          0         
TS3              12/06/2019 8          0         
TS3              12/06/2019 9          0         
TS3              12/06/2019 10         0         
TS3              12/06/2019 11         0         
TS3              12/06/2019 12         0         
TS3              12/06/2019 13         0         
TS3              12/06/2019 14         0         
TS3              12/06/2019 15         0         
TS3              12/06/2019 16         0         
TS3              12/06/2019 17         0         
TS3              12/06/2019 18         0         
TS3              12/06/2019 19         0         
TS3              12/06/2019 20         0         
TS3              12/06/2019 21         0         
TS3              12/06/2019 22         0         
TS3              12/06/2019 23         0         
;
TS4              12/05/2019 0:0:00     0.0052    
TS4              12/05/2019 0:5:00     0.0051    
TS4              12/05/2019 0:10:00    0.0051    
TS4              12/05/2019 0:15:00    0.0051    
TS4              12/05/2019 0:20:00    0.0050    
TS4              12/05/2019 0:25:00    0.0050    
TS4              12/05/2019 0:30:00    0.0050    
TS4              12/05/2019 0:35:00    0.0050    
TS4              12/05/2019 0:40:00    0.0050    
TS4              12/05/2019 0:45:00    0.0049    
TS4              12/05/2019 0:50:00    0.0049    
TS4              12/05/2019 0:55:00    0.0049    
TS4              12/05/2019 1:0:00     0.0049    
TS4              12/05/2019 1:5:00     0.0049    
TS4              12/05/2019 1:10:00    0.0049    
TS4              12/05/2019 1:15:00    0.0049    
TS4              12/05/2019 1:20:00    0.0049    
TS4              12/05/2019 1:25:00    0.0049    
TS4              12/05/2019 1:30:00    0.0049    
TS4              12/05/2019 1:35:00    0.0049    
TS4              12/05/2019 1:40:00    0.0049    
TS4              12/05/2019 1:45:00    0.0049    
TS4              12/05/2019 1:50:00    0.0049    
TS4              12/05/2019 1:55:00    0.0049    
TS4              12/05/2019 2:0:00     0.0049    
TS4              12/05/2019 2:5:00     0.0049    
TS4              12/05/2019 2:10:00    0.0048    
TS4              12/05/2019 2:15:00    0.0048    
TS4              12/05/2019 2:20:00    0.0048    
TS4              12/05/2019 2:25:00    0.0048    
TS4              12/05/2019 2:30:00    0.0048    
TS4              12/05/2019 2:35:00    0.0048    
TS4              12/05/2019 2:40:00    0.0048    
TS4              12/05/2019 2:45:00    0.0048    
TS4              12/05/2019 2:50:00    0.0048    
TS4              12/05/2019 2:55:00    0.0048    
TS4              12/05/2019 3:0:00     0.0048    
TS4              12/05/2019 3:5:00     0.0048    
TS4              12/05/2019 3:10:00    0.0048    
TS4              12/05/2019 3:15:00    0.0048    
TS4              12/05/2019 3:20:00    0.0049    
TS4              12/05/2019 3:25:00    0.0049    
TS4              12/05/2019 3:30:00    0.0049    
TS4              12/05/2019 3:35:00    0.0049    
TS4              12/05/2019 3:40:00    0.0049    
TS4              12/05/2019 3:45:00    0.0049    
TS4              12/05/2019 3:50:00    0.0049    
TS4              12/05/2019 3:55:00    0.0048    
TS4              12/05/2019 4:0:00     0.0048    
TS4              12/05/2019 4:5:00     0.0048    
TS4              12/05/2019 4:10:00    0.0048    
TS4              12/05/2019 4:15:00    0.0048    
TS4              12/05/2019 4:20:00    0.0048    
TS4              12/05/2019 4:25:00    0.0048    
TS4              12/05/2019 4:30:00    0.0048    
TS4              12/05/2019 4:35:00    0.0048    
TS4              12/05/2019 4:40:00    0.0048    
TS4              12/05/2019 4:45:00    0.0048    
TS4              12/05/2019 4:50:00    0.0048    
TS4              12/05/2019 4:55:00    0.0048    
TS4              12/05/2019 5:0:00     0.0049    
TS4              12/05/2019 5:5:00     0.0050    
TS4              12/05/2019 5:10:00    0.0051    
TS4              12/05/2019 5:15:00    0.0053    
TS4              12/05/2019 5:20:00    0.0054    
TS4              12/05/2019 5:25:00    0.0056    
TS4              12/05/2019 5:30:00    0.0058    
TS4              12/05/2019 5:35:00    0.0060    
TS4              12/05/2019 5:40:00    0.0062    
TS4              12/05/2019 5:45:00    0.0064    
TS4              12/05/2019 5:50:00    0.0066    
TS4              12/05/2019 5:55:00    0.0067    
TS4              12/05/2019 6:0:00     0.0069    
TS4              12/05/2019 6:5:00     0.0070    
TS4              12/05/2019 6:10:00    0.0071    
TS4              12/05/2019 6:15:00    0.0072    
TS4              12/05/2019 6:20:00    0.0073    
TS4              12/05/2019 6:25:00    0.0074    
TS4              12/05/2019 6:30:00    0.0074    
TS4              12/05/2019 6:35:00    0.0074    
TS4              12/05/2019 6:40:00    0.0074    
TS4              12/05/2019 6:45:00    0.0074    
TS4              12/05/2019 6:50:00    0.0074    
TS4              12/05/2019 6:55:00    0.0074    
TS4              12/05/2019 7:0:00     0.0074    
TS4              12/05/2019 7:5:00     0.0074    
TS4              12/05/2019 7:10:00    0.0073    
TS4              12/05/2019 7:15:00    0.0073    
TS4              12/05/2019 7:20:00    0.0072    
TS4              12/05/2019 7:25:00    0.0071    
TS4              12/05/2019 7:30:00    0.0071    
TS4              12/05/2019 7:35:00    0.0070    
TS4              12/05/2019 7:40:00    0.0069    
TS4              12/05/2019 7:45:00    0.0069    
TS4              12/05/2019 7:50:00    0.0068    
TS4              12/05/2019 7:55:00    0.0068    
TS4              12/05/2019 8:0:00     0.0067    
TS4              12/05/2019 8:5:00     0.0067    
TS4              12/05/2019 8:10:00    0.0066    
TS4              12/05/2019 8:15:00    0.0066    
TS4              12/05/2019 8:20:00    0.0065    
TS4              12/05/2019 8:25:00    0.0065    
TS4              12/05/2019 8:30:00    0.0065    
TS4              12/05/2019 8:35:00    0.0065    
TS4              12/05/2019 8:40:00    0.0064    
TS4              12/05/2019 8:45:00    0.0064    
TS4              12/05/2019 8:50:00    0.0064    
TS4              12/05/2019 8:55:00    0.0064    
TS4              12/05/2019 9:0:00     0.0064    
TS4              12/05/2019 9:5:00     0.0063    
TS4              12/05/2019 9:10:00    0.0063    
TS4              12/05/2019 9:15:00    0.0063    
TS4              12/05/2019 9:20:00    0.0063    
TS4              12/05/2019 9:25:00    0.0063    
TS4              12/05/2019 9:30:00    0.0063    
TS4              12/05/2019 9:35:00    0.0063    
TS4              12/05/2019 9:40:00    0.0062    
TS4              12/05/2019 9:45:00    0.0062    
TS4              12/05/2019 9:50:00    0.0062    
TS4              12/05/2019 9:55:00    0.0062    
TS4              12/05/2019 10:0:00    0.0062    
TS4              12/05/2019 10:5:00    0.0062    
TS4              12/05/2019 10:10:00   0.0062    
TS4              12/05/2019 10:15:00   0.0062    
TS4              12/05/2019 10:20:00   0.0062    
TS4              12/05/2019 10:25:00   0.0062    
TS4              12/05/2019 10:30:00   0.0061    
TS4              12/05/2019 10:35:00   0.0061    
TS4              12/05/2019 10:40:00   0.0061    
TS4              12/05/2019 10:45:00   0.0061    
TS4              12/05/2019 10:50:00   0.0061    
TS4              12/05/2019 10:55:00   0.0061    
TS4              12/05/2019 11:0:00    0.0061    
TS4              12/05/2019 11:5:00    0.0061    
TS4              12/05/2019 11:10:00   0.0061    
TS4              12/05/2019 11:15:00   0.0061    
TS4              12/05/2019 11:20:00   0.0061    
TS4              12/05/2019 11:25:00   0.0061    
TS4              12/05/2019 11:30:00   0.0061    
TS4              12/05/2019 11:35:00   0.0061    
TS4              12/05/2019 11:40:00   0.0061    
TS4              12/05/2019 11:45:00   0.0060    
TS4              12/05/2019 11:50:00   0.0060    
TS4              12/05/2019 11:55:00   0.0060    
TS4              12/05/2019 12:0:00    0.0060    
TS4              12/05/2019 12:5:00    0.0060    
TS4              12/05/2019 12:10:00   0.0060    
TS4              12/05/2019 12:15:00   0.0060    
TS4              12/05/2019 12:20:00   0.0060    
TS4              12/05/2019 12:25:00   0.0060    
TS4              12/05/2019 12:30:00   0.0060    
TS4              12/05/2019 12:35:00   0.0060    
TS4              12/05/2019 12:40:00   0.0060    
TS4              12/05/2019 12:45:00   0.0060    
TS4              12/05/2019 12:50:00   0.0060    
TS4              12/05/2019 12:55:00   0.0059    
TS4              12/05/2019 13:0:00    0.0059    
TS4              12/05/2019 13:5:00    0.0059    
TS4              12/05/2019 13:10:00   0.0059    
TS4              12/05/2019 13:15:00   0.0059    
TS4              12/05/2019 13:20:00   0.0059    
TS4              12/05/2019 13:25:00   0.0059    
TS4              12/05/2019 13:30:00   0.0059    
TS4              12/05/2019 13:35:00   0.0059    
TS4              12/05/2019 13:40:00   0.0059    
TS4              12/05/2019 13:45:00   0.0059    
TS4              12/05/2019 13:50:00   0.0059    
TS4              12/05/2019 13:55:00   0.0059    
TS4              12/05/2019 14:0:00    0.0059    
TS4              12/05/2019 14:5:00    0.0058    
TS4              12/05/2019 14:10:00   0.0058    
TS4              12/05/2019 14:15:00   0.0058    
TS4              12/05/2019 14:20:00   0.0058    
TS4              12/05/2019 14:25:00   0.0058    
TS4              12/05/2019 14:30:00   0.0058    
TS4              12/05/2019 14:35:00   0.0058    
TS4              12/05/2019 14:40:00   0.0058    
TS4              12/05/2019 14:45:00   0.0058    
TS4              12/05/2019 14:50:00   0.0058    
TS4              12/05/2019 14:55:00   0.0058    
TS4              12/05/2019 15:0:00    0.0059    
TS4              12/05/2019 15:5:00    0.0059    
TS4              12/05/2019 15:10:00   0.0059    
TS4              12/05/2019 15:15:00   0.0059    
TS4              12/05/2019 15:20:00   0.0059    
TS4              12/05/2019 15:25:00   0.0060    
TS4              12/05/2019 15:30:00   0.0060    
TS4              12/05/2019 15:35:00   0.0060    
TS4              12/05/2019 15:40:00   0.0061    
TS4              12/05/2019 15:45:00   0.0061    
TS4              12/05/2019 15:50:00   0.0061    
TS4              12/05/2019 15:55:00   0.0062    
TS4              12/05/2019 16:0:00    0.0062    
TS4              12/05/2019 16:5:00    0.0062    
TS4              12/05/2019 16:10:00   0.0063    
TS4              12/05/2019 16:15:00   0.0063    
TS4              12/05/2019 16:20:00   0.0063    
TS4              12/05/2019 16:25:00   0.0063    
TS4              12/05/2019 16:30:00   0.0064    
TS4              12/05/2019 16:35:00   0.0064    
TS4              12/05/2019 16:40:00   0.0064    
TS4              12/05/2019 16:45:00   0.0064    
TS4              12/05/2019 16:50:00   0.0065    
TS4              12/05/2019 16:55:00   0.0065    
TS4              12/05/2019 17:0:00    0.0065    
TS4              12/05/2019 17:5:00    0.0066    
TS4              12/05/2019 17:10:00   0.0066    
TS4              12/05/2019 17:15:00   0.0066    
TS4              12/05/2019 17:20:00   0.0067    
TS4              12/05/2019 17:25:00   0.0067    
TS4              12/05/2019 17:30:00   0.0068    
TS4              12/05/2019 17:35:00   0.0068    
TS4              12/05/2019 17:40:00   0.0068    
TS4              12/05/2019 17:45:00   0.0069    
TS4              12/05/2019 17:50:00   0.0069    
TS4              12/05/2019 17:55:00   0.0069    
TS4              12/05/2019 18:0:00    0.0070    
TS4              12/05/2019 18:5:00    0.0070    
TS4              12/05/2019 18:10:00   0.0070    
TS4              12/05/2019 18:15:00   0.0070    
TS4              12/05/2019 18:20:00   0.0071    
TS4              12/05/2019 18:25:00   0.0071    
TS4              12/05/2019 18:30:00   0.0071    
TS4              12/05/2019 18:35:00   0.0071    
TS4              12/05/2019 18:40:00   0.0071    
TS4              12/05/2019 18:45:00   0.0071    
TS4              12/05/2019 18:50:00   0.0071    
TS4              12/05/2019 18:55:00   0.0071    
TS4              12/05/2019 19:0:00    0.0071    
TS4              12/05/2019 19:5:00    0.0070    
TS4              12/05/2019 19:10:00   0.0070    
TS4              12/05/2019 19:15:00   0.0070    
TS4              12/05/2019 19:20:00   0.0069    
TS4              12/05/2019 19:25:00   0.0069    
TS4              12/05/2019 19:30:00   0.0068    
TS4              12/05/2019 19:35:00   0.0068    
TS4              12/05/2019 19:40:00   0.0068    
TS4              12/05/2019 19:45:00   0.0067    
TS4              12/05/2019 19:50:00   0.0067    
TS4              12/05/2019 19:55:00   0.0066    
TS4              12/05/2019 20:0:00    0.0066    
TS4              12/05/2019 20:5:00    0.0066    
TS4              12/05/2019 20:10:00   0.0066    
TS4              12/05/2019 20:15:00   0.0066    
TS4              12/05/2019 20:20:00   0.0066    
TS4              12/05/2019 20:25:00   0.0066    
TS4              12/05/2019 20:30:00   0.0066    
TS4              12/05/2019 20:35:00   0.0066    
TS4              12/05/2019 20:40:00   0.0066    
TS4              12/05/2019 20:45:00   0.0066    
TS4              12/05/2019 20:50:00   0.0066    
TS4              12/05/2019 20:55:00   0.0065    
TS4              12/05/2019 21:0:00    0.0065    
TS4              12/05/2019 21:5:00    0.0065    
TS4              12/05/2019 21:10:00   0.0065    
TS4              12/05/2019 21:15:00   0.0065    
TS4              12/05/2019 21:20:00   0.0065    
TS4              12/05/2019 21:25:00   0.0064    
TS4              12/05/2019 21:30:00   0.0064    
TS4              12/05/2019 21:35:00   0.0064    
TS4              12/05/2019 21:40:00   0.0064    
TS4              12/05/2019 21:45:00   0.0063    
TS4              12/05/2019 21:50:00   0.0063    
TS4              12/05/2019 21:55:00   0.0063    
TS4              12/05/2019 22:0:00    0.0063    
TS4              12/05/2019 22:5:00    0.0063    
TS4              12/05/2019 22:10:00   0.0063    
TS4              12/05/2019 22:15:00   0.0062    
TS4              12/05/2019 22:20:00   0.0062    
TS4              12/05/2019 22:25:00   0.0062    
TS4              12/05/2019 22:30:00   0.0062    
TS4              12/05/2019 22:35:00   0.0062    
TS4              12/05/2019 22:40:00   0.0062    
TS4              12/05/2019 22:45:00   0.0062    
TS4              12/05/2019 22:50:00   0.0062    