[TITLE]
;;Project Title/Notes
;;Fredericia hovedkloak

[OPTIONS]
;;Option             Value
FLOW_UNITS           CMS
INFILTRATION         GREEN_AMPT
FLOW_ROUTING         KINWAVE
LINK_OFFSETS         DEPTH
MIN_SLOPE            0
ALLOW_PONDING        NO
SKIP_STEADY_STATE    NO

START_DATE           12/05/2019
START_TIME           00:00:00
REPORT_START_DATE    12/05/2019
REPORT_START_TIME    00:00:00
END_DATE             12/06/2019
END_TIME             23:55:00
SWEEP_START          01/01
SWEEP_END            12/31
DRY_DAYS             0
REPORT_STEP          00:05:00
WET_STEP             00:05:00
DRY_STEP             01:00:00
ROUTING_STEP         0:00:10
;;PAJDNRULE_STEP     00:00:10

INERTIAL_DAMPING     PARTIAL
NORMAL_FLOW_LIMITED  BOTH
FORCE_MAIN_EQUATION  H-W
VARIABLE_STEP        0.75
LENGTHENING_STEP     0
MIN_SURFAREA         12.566
MAX_TRIALS           8
HEAD_TOLERANCE       0.005
SYS_FLOW_TOL         0.5
LAT_FLOW_TOL         0.5
MINIMUM_STEP         0.5
THREADS              1

[EVAPORATION]
;;Data Source    Parameters
;;-------------- ----------------
CONSTANT         0.0
DRY_ONLY         NO

[RAINGAGES]
;;Name           Format    Interval SCF      Source 
;;-------------- --------- ------ ------ ----------
gage1      	 INTENSITY  	 1:00       	 1.000 	 TIMESERIES 	 TS2        
gage2      	 INTENSITY  	 1:00       	 1.000 	 TIMESERIES 	 TS2        
gage3      	 INTENSITY  	 1:00       	 1.000 	 TIMESERIES 	 TS2        
gage4      	 INTENSITY  	 1:00       	 1.000 	 TIMESERIES 	 TS2        
gage5      	 INTENSITY  	 1:00       	 1.000 	 TIMESERIES 	 TS2        
gage6      	 INTENSITY  	 1:00       	 1.000 	 TIMESERIES 	 TS2        
gage7      	 INTENSITY  	 1:00       	 1.000 	 TIMESERIES 	 TS2        
gage8      	 INTENSITY  	 1:00       	 1.000 	 TIMESERIES 	 TS2        
gage9      	 INTENSITY  	 1:00       	 1.000 	 TIMESERIES 	 TS2        
gage10     	 INTENSITY  	 1:00       	 1.000 	 TIMESERIES 	 TS2        
gage11     	 INTENSITY  	 1:00       	 1.000 	 TIMESERIES 	 TS2        
gage12     	 INTENSITY  	 1:00       	 1.000 	 TIMESERIES 	 TS2        
gage13     	 INTENSITY  	 1:00       	 1.000 	 TIMESERIES 	 TS2        
gage14     	 INTENSITY  	 1:00       	 1.000 	 TIMESERIES 	 TS2        
gage15     	 INTENSITY  	 1:00       	 1.000 	 TIMESERIES 	 TS2        
gage16     	 INTENSITY  	 1:00       	 1.000 	 TIMESERIES 	 TS2        
gage17     	 INTENSITY  	 1:00       	 1.000 	 TIMESERIES 	 TS2        
gage18     	 INTENSITY  	 1:00       	 1.000 	 TIMESERIES 	 TS2        
gage19     	 INTENSITY  	 1:00       	 1.000 	 TIMESERIES 	 TS2        
gage20     	 INTENSITY  	 1:00       	 1.000 	 TIMESERIES 	 TS2        
gage21     	 INTENSITY  	 1:00       	 1.000 	 TIMESERIES 	 TS2        
gage22     	 INTENSITY  	 1:00       	 1.000 	 TIMESERIES 	 TS2        
gage23     	 INTENSITY  	 1:00       	 1.000 	 TIMESERIES 	 TS2        
gage24     	 INTENSITY  	 1:00       	 1.000 	 TIMESERIES 	 TS2        
gage25     	 INTENSITY  	 1:00       	 1.000 	 TIMESERIES 	 TS2        
gage26     	 INTENSITY  	 1:00       	 1.000 	 TIMESERIES 	 TS2        
gage27     	 INTENSITY  	 1:00       	 1.000 	 TIMESERIES 	 TS2        
gage28     	 INTENSITY  	 1:00       	 1.000 	 TIMESERIES 	 TS2        
gage29     	 INTENSITY  	 1:00       	 1.000 	 TIMESERIES 	 TS2        
gage30     	 INTENSITY  	 1:00       	 1.000 	 TIMESERIES 	 TS2        
gage31     	 INTENSITY  	 1:00       	 1.000 	 TIMESERIES 	 TS2        
gage32     	 INTENSITY  	 1:00       	 1.000 	 TIMESERIES 	 TS2        
gage33     	 INTENSITY  	 1:00       	 1.000 	 TIMESERIES 	 TS2        
gage34     	 INTENSITY  	 1:00       	 1.000 	 TIMESERIES 	 TS2        
gage35     	 INTENSITY  	 1:00       	 1.000 	 TIMESERIES 	 TS2        
gage36     	 INTENSITY  	 1:00       	 1.000 	 TIMESERIES 	 TS2        
gage37     	 INTENSITY  	 1:00       	 1.000 	 TIMESERIES 	 TS2        
gage38     	 INTENSITY  	 1:00       	 1.000 	 TIMESERIES 	 TS2        
gage39     	 INTENSITY  	 1:00       	 1.000 	 TIMESERIES 	 TS2        
gage40     	 INTENSITY  	 1:00       	 1.000 	 TIMESERIES 	 TS2        
gage41     	 INTENSITY  	 1:00       	 1.000 	 TIMESERIES 	 TS2        
gage42     	 INTENSITY  	 1:00       	 1.000 	 TIMESERIES 	 TS2        
gage43     	 INTENSITY  	 1:00       	 1.000 	 TIMESERIES 	 TS2        
gage44     	 INTENSITY  	 1:00       	 1.000 	 TIMESERIES 	 TS2        
gage45     	 INTENSITY  	 1:00       	 1.000 	 TIMESERIES 	 TS2        
gage46     	 INTENSITY  	 1:00       	 1.000 	 TIMESERIES 	 TS2        
gage47     	 INTENSITY  	 1:00       	 1.000 	 TIMESERIES 	 TS2        
gage48     	 INTENSITY  	 1:00       	 1.000 	 TIMESERIES 	 TS2        
gage49     	 INTENSITY  	 1:00       	 1.000 	 TIMESERIES 	 TS2        
gage50     	 INTENSITY  	 1:00       	 1.000 	 TIMESERIES 	 TS2        
gage51     	 INTENSITY  	 1:00       	 1.000 	 TIMESERIES 	 TS2        
gage52     	 INTENSITY  	 1:00       	 1.000 	 TIMESERIES 	 TS2        
gage53     	 INTENSITY  	 1:00       	 1.000 	 TIMESERIES 	 TS2        
gage54     	 INTENSITY  	 1:00       	 1.000 	 TIMESERIES 	 TS2        
gage55     	 INTENSITY  	 1:00       	 1.000 	 TIMESERIES 	 TS2        
gage56     	 INTENSITY  	 1:00       	 1.000 	 TIMESERIES 	 TS2        

 [SUBCATCHMENTS]
;;Name           Rain Gage        Outlet           Area     pctImperv Width   pct Slope CurbLen  SnowPack 
;;-------------- ---------------- ---------------- -------- -------- -------- -------- -------- ----------------
S1     	 Gage1  	 M4242011         	 100.000 	 100.000 	 400.000 	 0.500 	 0.000
S2     	 Gage2  	 M4224014         	 10.000 	 100.000 	 400.000 	 0.500 	 0.000
S3     	 Gage3  	 M4224084         	 10.000 	 100.000 	 400.000 	 0.500 	 0.000
S4     	 Gage4  	 M4222019         	 10.000 	 100.000 	 400.000 	 0.500 	 0.000
S5     	 Gage5  	 M4311014         	 10.000 	 100.000 	 400.000 	 0.500 	 0.000
S6     	 Gage6  	 M4312031         	 10.000 	 100.000 	 400.000 	 0.500 	 0.000
S7     	 Gage7  	 M4312008         	 10.000 	 100.000 	 400.000 	 0.500 	 0.000
S8     	 Gage8  	 M3334006         	 10.000 	 100.000 	 400.000 	 0.500 	 0.000
S9     	 Gage9  	 M3343097         	 10.000 	 100.000 	 400.000 	 0.500 	 0.000
S10    	 Gage10 	 M3343043         	 10.000 	 100.000 	 400.000 	 0.500 	 0.000
S11    	 Gage11 	 M3341016         	 10.000 	 100.000 	 400.000 	 0.500 	 0.000
S12    	 Gage12 	 M3341049         	 10.000 	 100.000 	 400.000 	 0.500 	 0.000
S13    	 Gage13 	 M3341051         	 10.000 	 100.000 	 400.000 	 0.500 	 0.000
S14    	 Gage14 	 M3341097         	 10.000 	 100.000 	 400.000 	 0.500 	 0.000
S15    	 Gage15 	 M3314039         	 10.000 	 100.000 	 400.000 	 0.500 	 0.000
S16    	 Gage16 	 M3314051         	 10.000 	 100.000 	 400.000 	 0.500 	 0.000
S17    	 Gage17 	 M3314203         	 10.000 	 100.000 	 400.000 	 0.500 	 0.000
S18    	 Gage18 	 M3314089         	 10.000 	 100.000 	 400.000 	 0.500 	 0.000
S19    	 Gage19 	 M3314095         	 10.000 	 100.000 	 400.000 	 0.500 	 0.000
S20    	 Gage20 	 M3312064         	 10.000 	 100.000 	 400.000 	 0.500 	 0.000
S21    	 Gage21 	 M2334175         	 10.000 	 100.000 	 400.000 	 0.500 	 0.000
S22    	 Gage22 	 M2334015         	 10.000 	 100.000 	 400.000 	 0.500 	 0.000
S23    	 Gage23 	 M2334130         	 10.000 	 100.000 	 400.000 	 0.500 	 0.000
S24    	 Gage24 	 M2341060         	 10.000 	 100.000 	 400.000 	 0.500 	 0.000
S25    	 Gage25 	 M2341057         	 10.000 	 100.000 	 400.000 	 0.500 	 0.000
S26    	 Gage26 	 M2323038         	 10.000 	 100.000 	 400.000 	 0.500 	 0.000
S27    	 Gage27 	 M2323065         	 10.000 	 100.000 	 400.000 	 0.500 	 0.000
S28    	 Gage28 	 M2323006         	 10.000 	 100.000 	 400.000 	 0.500 	 0.000
S29    	 Gage29 	 M2323143         	 10.000 	 100.000 	 400.000 	 0.500 	 0.000
S30    	 Gage30 	 B2323069         	 10.000 	 100.000 	 400.000 	 0.500 	 0.000
S31    	 Gage31 	 M1532006         	 100.000 	 100.000 	 400.000 	 0.500 	 0.000
S32    	 Gage32 	 M1533025         	 10.000 	 100.000 	 400.000 	 0.500 	 0.000
S33    	 Gage33 	 M1533003         	 10.000 	 100.000 	 400.000 	 0.500 	 0.000
S34    	 Gage34 	 M1444001         	 10.000 	 100.000 	 400.000 	 0.500 	 0.000
S35    	 Gage35 	 M1443053         	 10.000 	 100.000 	 400.000 	 0.500 	 0.000
S36    	 Gage36 	 M2412133         	 10.000 	 100.000 	 400.000 	 0.500 	 0.000
S37    	 Gage37 	 M2414181         	 10.000 	 100.000 	 400.000 	 0.500 	 0.000
S38    	 Gage38 	 M2414180         	 10.000 	 100.000 	 400.000 	 0.500 	 0.000
S39    	 Gage39 	 M2414179         	 10.000 	 100.000 	 400.000 	 0.500 	 0.000
S40    	 Gage40 	 M2414176         	 10.000 	 100.000 	 400.000 	 0.500 	 0.000
S41    	 Gage41 	 M2414173         	 10.000 	 100.000 	 400.000 	 0.500 	 0.000
S42    	 Gage42 	 M2414172         	 10.000 	 100.000 	 400.000 	 0.500 	 0.000
S43    	 Gage43 	 M2414171         	 10.000 	 100.000 	 400.000 	 0.500 	 0.000
S44    	 Gage44 	 M2414168         	 10.000 	 100.000 	 400.000 	 0.500 	 0.000
S45    	 Gage45 	 M2414167         	 10.000 	 100.000 	 400.000 	 0.500 	 0.000
S46    	 Gage46 	 M2414165         	 10.000 	 100.000 	 400.000 	 0.500 	 0.000
S47    	 Gage47 	 M2413191         	 10.000 	 100.000 	 400.000 	 0.500 	 0.000
S48    	 Gage48 	 M2413190         	 10.000 	 100.000 	 400.000 	 0.500 	 0.000
S49    	 Gage49 	 M2413188         	 10.000 	 100.000 	 400.000 	 0.500 	 0.000
S50    	 Gage50 	 M2413185         	 10.000 	 100.000 	 400.000 	 0.500 	 0.000
S51    	 Gage51 	 M2324107         	 10.000 	 100.000 	 400.000 	 0.500 	 0.000
S52    	 Gage52 	 M2324101         	 10.000 	 100.000 	 400.000 	 0.500 	 0.000

 [SUBAREAS]
;;Subcatchment   N-Imperv   N-Perv     S-Imperv   S-Perv     PctZero    RouteTo    PctRouted
;;-------------- ---------- ---------- ---------- ---------- ---------- ---------- ----------
S1     	 0.010 	 0.100 	 0.050 	 0.050 	 25.000 	 OUTLET     
S2     	 0.010 	 0.100 	 0.050 	 0.050 	 25.000 	 OUTLET     
S3     	 0.010 	 0.100 	 0.050 	 0.050 	 25.000 	 OUTLET     
S4     	 0.010 	 0.100 	 0.050 	 0.050 	 25.000 	 OUTLET     
S5     	 0.010 	 0.100 	 0.050 	 0.050 	 25.000 	 OUTLET     
S6     	 0.010 	 0.100 	 0.050 	 0.050 	 25.000 	 OUTLET     
S7     	 0.010 	 0.100 	 0.050 	 0.050 	 25.000 	 OUTLET     
S8     	 0.010 	 0.100 	 0.050 	 0.050 	 25.000 	 OUTLET     
S9     	 0.010 	 0.100 	 0.050 	 0.050 	 25.000 	 OUTLET     
S10    	 0.010 	 0.100 	 0.050 	 0.050 	 25.000 	 OUTLET     
S11    	 0.010 	 0.100 	 0.050 	 0.050 	 25.000 	 OUTLET     
S12    	 0.010 	 0.100 	 0.050 	 0.050 	 25.000 	 OUTLET     
S13    	 0.010 	 0.100 	 0.050 	 0.050 	 25.000 	 OUTLET     
S14    	 0.010 	 0.100 	 0.050 	 0.050 	 25.000 	 OUTLET     
S15    	 0.010 	 0.100 	 0.050 	 0.050 	 25.000 	 OUTLET     
S16    	 0.010 	 0.100 	 0.050 	 0.050 	 25.000 	 OUTLET     
S17    	 0.010 	 0.100 	 0.050 	 0.050 	 25.000 	 OUTLET     
S18    	 0.010 	 0.100 	 0.050 	 0.050 	 25.000 	 OUTLET     
S19    	 0.010 	 0.100 	 0.050 	 0.050 	 25.000 	 OUTLET     
S20    	 0.010 	 0.100 	 0.050 	 0.050 	 25.000 	 OUTLET     
S21    	 0.010 	 0.100 	 0.050 	 0.050 	 25.000 	 OUTLET     
S22    	 0.010 	 0.100 	 0.050 	 0.050 	 25.000 	 OUTLET     
S23    	 0.010 	 0.100 	 0.050 	 0.050 	 25.000 	 OUTLET     
S24    	 0.010 	 0.100 	 0.050 	 0.050 	 25.000 	 OUTLET     
S25    	 0.010 	 0.100 	 0.050 	 0.050 	 25.000 	 OUTLET     
S26    	 0.010 	 0.100 	 0.050 	 0.050 	 25.000 	 OUTLET     
S27    	 0.010 	 0.100 	 0.050 	 0.050 	 25.000 	 OUTLET     
S28    	 0.010 	 0.100 	 0.050 	 0.050 	 25.000 	 OUTLET     
S29    	 0.010 	 0.100 	 0.050 	 0.050 	 25.000 	 OUTLET     
S30    	 0.010 	 0.100 	 0.050 	 0.050 	 25.000 	 OUTLET     
S31    	 0.010 	 0.100 	 0.050 	 0.050 	 25.000 	 OUTLET     
S32    	 0.010 	 0.100 	 0.050 	 0.050 	 25.000 	 OUTLET     
S33    	 0.010 	 0.100 	 0.050 	 0.050 	 25.000 	 OUTLET     
S34    	 0.010 	 0.100 	 0.050 	 0.050 	 25.000 	 OUTLET     
S35    	 0.010 	 0.100 	 0.050 	 0.050 	 25.000 	 OUTLET     
S36    	 0.010 	 0.100 	 0.050 	 0.050 	 25.000 	 OUTLET     
S37    	 0.010 	 0.100 	 0.050 	 0.050 	 25.000 	 OUTLET     
S38    	 0.010 	 0.100 	 0.050 	 0.050 	 25.000 	 OUTLET     
S39    	 0.010 	 0.100 	 0.050 	 0.050 	 25.000 	 OUTLET     
S40    	 0.010 	 0.100 	 0.050 	 0.050 	 25.000 	 OUTLET     
S41    	 0.010 	 0.100 	 0.050 	 0.050 	 25.000 	 OUTLET     
S42    	 0.010 	 0.100 	 0.050 	 0.050 	 25.000 	 OUTLET     
S43    	 0.010 	 0.100 	 0.050 	 0.050 	 25.000 	 OUTLET     
S44    	 0.010 	 0.100 	 0.050 	 0.050 	 25.000 	 OUTLET     
S45    	 0.010 	 0.100 	 0.050 	 0.050 	 25.000 	 OUTLET     
S46    	 0.010 	 0.100 	 0.050 	 0.050 	 25.000 	 OUTLET     
S47    	 0.010 	 0.100 	 0.050 	 0.050 	 25.000 	 OUTLET     
S48    	 0.010 	 0.100 	 0.050 	 0.050 	 25.000 	 OUTLET     
S49    	 0.010 	 0.100 	 0.050 	 0.050 	 25.000 	 OUTLET     
S50    	 0.010 	 0.100 	 0.050 	 0.050 	 25.000 	 OUTLET     
S51    	 0.010 	 0.100 	 0.050 	 0.050 	 25.000 	 OUTLET     
S52    	 0.010 	 0.100 	 0.050 	 0.050 	 25.000 	 OUTLET     

 [JUNCTIONS]
;;Name           Elevation  MaxDepth   InitDepth  SurDepth   Aponded   
;;-------------- ---------- ---------- ---------- ---------- ----------
M4244001         29.350 	 2.000 	 0 	 0 	 0
M4242001         28.990 	 2.000 	 0 	 0 	 0
M4242004         28.390 	 2.000 	 0 	 0 	 0
M4242008         27.750 	 2.000 	 0 	 0 	 0
M4242010         27.490 	 3.290 	 0 	 0 	 0
M4242011         27.330 	 3.460 	 0 	 0 	 0
M4242013         27.200 	 2.000 	 0 	 0 	 0
M4242015         27.120 	 3.180 	 0 	 0 	 0
M4242017         26.980 	 3.320 	 0 	 0 	 0
M4242019         26.800 	 2.000 	 0 	 0 	 0
M4224014         26.670 	 3.570 	 0 	 0 	 0
M4224071         26.510 	 3.760 	 0 	 0 	 0
M4224073         26.420 	 3.820 	 0 	 0 	 0
M4224075         26.330 	 3.170 	 0 	 0 	 0
M4224076         26.260 	 2.850 	 0 	 0 	 0
M4224078         26.250 	 1.920 	 0 	 0 	 0
M4224080         26.130 	 1.280 	 0 	 0 	 0
M4224082         26.010 	 1.240 	 0 	 0 	 0
M4224084         21.533 	 2.000 	 0 	 0 	 0
M4224085         21.423 	 2.000 	 0 	 0 	 0
M4222028         21.303 	 2.000 	 0 	 0 	 0
M4222019         21.163 	 3.160 	 0 	 0 	 0
M4222018         20.913 	 3.040 	 0 	 0 	 0
M4222017         20.383 	 3.830 	 0 	 0 	 0
M4222016         20.023 	 3.800 	 0 	 0 	 0
M4222015         19.643 	 3.750 	 0 	 0 	 0
M4222014         19.183 	 3.880 	 0 	 0 	 0
M4222013         18.813 	 3.840 	 0 	 0 	 0
M4222012         18.343 	 4.460 	 0 	 0 	 0
M4222011         18.213 	 5.150 	 0 	 0 	 0
M4222039         18.093 	 4.030 	 0 	 0 	 0
M4222042         17.903 	 4.030 	 0 	 0 	 0
M4222047         17.793 	 3.120 	 0 	 0 	 0
M4222049         17.593 	 4.660 	 0 	 0 	 0
M4222052         17.433 	 2.000 	 0 	 0 	 0
M4311038         17.183 	 2.000 	 0 	 0 	 0
M4311036         16.993 	 2.000 	 0 	 0 	 0
M4311034         16.823 	 2.000 	 0 	 0 	 0
M4311032         16.643 	 2.000 	 0 	 0 	 0
M4311040         16.523 	 5.230 	 0 	 0 	 0
M4311019         16.490 	 2.910 	 0 	 0 	 0
M4311018         16.423 	 2.000 	 0 	 0 	 0
M4311017         16.363 	 2.000 	 0 	 0 	 0
M4311016         16.253 	 2.000 	 0 	 0 	 0
M4311015         16.153 	 2.000 	 0 	 0 	 0
M4311014         16.013 	 2.000 	 0 	 0 	 0
M4311013         15.803 	 2.000 	 0 	 0 	 0
M4311012         15.613 	 2.000 	 0 	 0 	 0
M4311010         15.413 	 2.000 	 0 	 0 	 0
M4311009         15.203 	 2.000 	 0 	 0 	 0
M4311008         14.993 	 2.000 	 0 	 0 	 0
M4311020         14.853 	 2.000 	 0 	 0 	 0
M4311007         14.683 	 2.000 	 0 	 0 	 0
M4311006         14.453 	 2.000 	 0 	 0 	 0
M4312031         14.423 	 2.000 	 0 	 0 	 0
M4312023         13.963 	 2.000 	 0 	 0 	 0
M4312022         13.803 	 2.000 	 0 	 0 	 0
M4312021         13.643 	 2.000 	 0 	 0 	 0
M4312020         13.493 	 2.000 	 0 	 0 	 0
M4312019         13.363 	 2.000 	 0 	 0 	 0
M4312018         13.133 	 2.000 	 0 	 0 	 0
M4312017         12.923 	 2.000 	 0 	 0 	 0
M4312016         12.783 	 2.000 	 0 	 0 	 0
M4312015         12.733 	 2.000 	 0 	 0 	 0
M4312014         12.613 	 2.000 	 0 	 0 	 0
M4312013         12.493 	 2.000 	 0 	 0 	 0
M3334004         12.313 	 2.000 	 0 	 0 	 0
M4312012         12.193 	 2.000 	 0 	 0 	 0
M4312010         12.013 	 2.000 	 0 	 0 	 0
M4312009         11.913 	 2.000 	 0 	 0 	 0
M4312008         11.563 	 1.860 	 0 	 0 	 0
M4312030         11.473 	 2.000 	 0 	 0 	 0
M4312011         11.383 	 2.720 	 0 	 0 	 0
M3334001         11.163 	 2.740 	 0 	 0 	 0
M3334002         10.933 	 2.790 	 0 	 0 	 0
M3334013         10.893 	 2.380 	 0 	 0 	 0
M3334003         10.793 	 3.190 	 0 	 0 	 0
M3334005         10.653 	 3.210 	 0 	 0 	 0
M3334006         10.573 	 3.280 	 0 	 0 	 0
M3334011         9.943 	 3.380 	 0 	 0 	 0
M3343097         9.760 	 2.800 	 0 	 0 	 0
M3343093         8.550 	 1.440 	 0 	 0 	 0
M3343095         6.360 	 4.910 	 0 	 0 	 0
M3343043         6.333 	 2.000 	 0 	 0 	 0
M3341025         6.083 	 2.000 	 0 	 0 	 0
M3341024         6.073 	 2.000 	 0 	 0 	 0
M3341023         5.993 	 2.000 	 0 	 0 	 0
M3341022         5.843 	 2.000 	 0 	 0 	 0
M3341021         5.753 	 2.000 	 0 	 0 	 0
M3341020         5.563 	 2.000 	 0 	 0 	 0
M3341019         5.313 	 2.000 	 0 	 0 	 0
M3341018         5.173 	 2.000 	 0 	 0 	 0
M3341017         4.953 	 2.000 	 0 	 0 	 0
M3341016         4.713 	 5.920 	 0 	 0 	 0
M3341050         4.523 	 6.110 	 0 	 0 	 0
M3341049         4.413 	 7.140 	 0 	 0 	 0
M3341051         4.403 	 2.260 	 0 	 0 	 0
M3341092         4.263 	 2.000 	 0 	 0 	 0
M3341093         4.253 	 3.750 	 0 	 0 	 0
M3341094         4.243 	 4.600 	 0 	 0 	 0
M3341095         3.973 	 8.120 	 0 	 0 	 0
M3341096         3.603 	 7.890 	 0 	 0 	 0
M3341097         3.233 	 5.030 	 0 	 0 	 0
M3341098         3.213 	 5.660 	 0 	 0 	 0
M3323070         3.123 	 4.770 	 0 	 0 	 0
M3323071         2.753 	 5.240 	 0 	 0 	 0
M3314039         2.733 	 4.690 	 0 	 0 	 0
M3314041         2.433 	 4.480 	 0 	 0 	 0
M3314042         2.403 	 2.000 	 0 	 0 	 0
M3314044         2.323 	 4.250 	 0 	 0 	 0
M3314045         2.313 	 3.940 	 0 	 0 	 0
M3314046         2.103 	 4.230 	 0 	 0 	 0
M3314051         2.053 	 3.830 	 0 	 0 	 0
M3314052         2.043 	 3.790 	 0 	 0 	 0
M3314203         2.000 	 3.050 	 0 	 0 	 0
M3314084         1.983 	 2.790 	 0 	 0 	 0
M3314085         1.943 	 1.970 	 0 	 0 	 0
M3314086         1.803 	 1.820 	 0 	 0 	 0
M3314087         1.643 	 1.650 	 0 	 0 	 0
M3314088         1.633 	 1.750 	 0 	 0 	 0
M3314089         0.393 	 3.000 	 0 	 0 	 0
M3314091         0.383 	 3.300 	 0 	 0 	 0
M3314095         0.153 	 7.790 	 0 	 0 	 0
M3312084         0.050 	 7.550 	 0 	 0 	 0
M3312083         0.034 	 2.000 	 0 	 0 	 0
M3312064         -0.477 	 3.390 	 0 	 0 	 0
M3312063         -0.787 	 2.700 	 0 	 0 	 0
M3312062         -0.927 	 2.840 	 0 	 0 	 0
M3312061         -1.117 	 3.030 	 0 	 0 	 0
M2334030         -1.177 	 2.890 	 0 	 0 	 0
M2334173         -1.310 	 2.010 	 0 	 0 	 0
M2334175         -1.320 	 1.590 	 0 	 0 	 0
M2334177         -1.590 	 1.720 	 0 	 0 	 0
M2334015         -1.620 	 2.340 	 0 	 0 	 0
M2334147         -1.737 	 3.650 	 0 	 0 	 0
M2334146         -1.947 	 4.040 	 0 	 0 	 0
M2334130         -2.087 	 4.000 	 0 	 0 	 0
M2334101         -2.147 	 4.060 	 0 	 0 	 0
M2334100         -2.177 	 4.090 	 0 	 0 	 0
M2334098         0.333 	 2.000 	 0 	 0 	 0
M2334097         0.313 	 2.000 	 0 	 0 	 0
M2334096         0.303 	 3.150 	 0 	 0 	 0
M2343123         0.053 	 3.310 	 0 	 0 	 0
M2341119         -0.067 	 3.210 	 0 	 0 	 0
M2341120         -0.227 	 3.020 	 0 	 0 	 0
M2341121         -0.547 	 3.270 	 0 	 0 	 0
M2341060         -0.667 	 2.670 	 0 	 0 	 0
M2341059         -0.907 	 3.400 	 0 	 0 	 0
M2341057         -1.117 	 3.490 	 0 	 0 	 0
M2323042         -1.297 	 3.500 	 0 	 0 	 0
M2323041         -1.507 	 3.590 	 0 	 0 	 0
M2323040         -1.737 	 3.270 	 0 	 0 	 0
M2323038         -1.847 	 3.320 	 0 	 0 	 0
M2323036         -2.207 	 3.090 	 0 	 0 	 0
M2323065         -2.407 	 3.450 	 0 	 0 	 0
M2323006         -2.597 	 3.590 	 0 	 0 	 0
M2323143         -2.687 	 4.600 	 0 	 0 	 0
M1521008         29.803 	 2.000 	 0 	 0 	 0
M1514001         29.593 	 2.000 	 0 	 0 	 0
M1514002         29.563 	 2.000 	 0 	 0 	 0
M1514003         29.243 	 3.580 	 0 	 0 	 0
M1514004         28.983 	 2.080 	 0 	 0 	 0
M1514005         28.753 	 2.060 	 0 	 0 	 0
M1514006         28.503 	 0.650 	 0 	 0 	 0
M1514008         28.233 	 0.680 	 0 	 0 	 0
M1514007         27.993 	 0.650 	 0 	 0 	 0
M1514009         27.823 	 3.580 	 0 	 0 	 0
M0514149         27.773 	 2.000 	 0 	 0 	 0
M0514151         27.633 	 2.000 	 0 	 0 	 0
M1532006         27.473 	 4.080 	 0 	 0 	 0
M1532007         27.313 	 4.610 	 0 	 0 	 0
M1532008         27.273 	 3.540 	 0 	 0 	 0
M1532009         27.173 	 3.720 	 0 	 0 	 0
M1532010         26.543 	 2.320 	 0 	 0 	 0
M1532011         26.163 	 1.570 	 0 	 0 	 0
M1534046         26.003 	 2.720 	 0 	 0 	 0
M1534031         25.983 	 2.160 	 0 	 0 	 0
M1534032         25.843 	 2.630 	 0 	 0 	 0
M1534033         25.623 	 2.970 	 0 	 0 	 0
M1534034         25.483 	 2.620 	 0 	 0 	 0
M1534035         25.253 	 2.170 	 0 	 0 	 0
M1534036         25.063 	 2.110 	 0 	 0 	 0
M1534037         24.813 	 3.720 	 0 	 0 	 0
M1533001         23.933 	 2.170 	 0 	 0 	 0
M1533002         23.053 	 1.940 	 0 	 0 	 0
M1533025         22.170 	 2.130 	 0 	 0 	 0
M1533003         22.123 	 1.600 	 0 	 0 	 0
M1533004         21.933 	 1.920 	 0 	 0 	 0
M2511001         21.693 	 2.120 	 0 	 0 	 0
M2511002         21.483 	 2.660 	 0 	 0 	 0
M2511003         21.263 	 3.600 	 0 	 0 	 0
M2511004         21.013 	 2.690 	 0 	 0 	 0
M2422001         20.803 	 1.670 	 0 	 0 	 0
M1444001         20.493 	 2.120 	 0 	 0 	 0
M1444002         20.323 	 2.680 	 0 	 0 	 0
M1444003         20.183 	 2.000 	 0 	 0 	 0
M1444004         20.003 	 2.000 	 0 	 0 	 0
M1444005         19.833 	 2.000 	 0 	 0 	 0
M1444006         19.613 	 2.000 	 0 	 0 	 0
M1444007         19.423 	 2.000 	 0 	 0 	 0
M1443001         19.353 	 2.000 	 0 	 0 	 0
M1443002         19.233 	 1.330 	 0 	 0 	 0
M1443003         19.073 	 2.310 	 0 	 0 	 0
M1443004         18.573 	 1.720 	 0 	 0 	 0
M1443005         18.343 	 2.250 	 0 	 0 	 0
M1443012         17.433 	 1.770 	 0 	 0 	 0
M1443006         16.423 	 1.730 	 0 	 0 	 0
M1443007         14.753 	 2.480 	 0 	 0 	 0
M1443008         14.213 	 3.210 	 0 	 0 	 0
M1443009         14.163 	 2.240 	 0 	 0 	 0
M1443010         14.113 	 2.000 	 0 	 0 	 0
M1443053         13.673 	 3.460 	 0 	 0 	 0
M1443052         13.653 	 2.490 	 0 	 0 	 0
M1443051         13.643 	 2.570 	 0 	 0 	 0
M1443050         13.613 	 2.670 	 0 	 0 	 0
M1443049         13.123 	 2.080 	 0 	 0 	 0
M2421011         12.963 	 2.280 	 0 	 0 	 0
M2421010         12.803 	 1.360 	 0 	 0 	 0
M2421009         12.663 	 1.230 	 0 	 0 	 0
M2421008         12.553 	 1.570 	 0 	 0 	 0
M2412133         12.413 	 1.280 	 0 	 0 	 0
M2412132         11.663 	 1.490 	 0 	 0 	 0
M2412131         11.453 	 1.270 	 0 	 0 	 0
M2412130         11.313 	 1.200 	 0 	 0 	 0
M2412129         11.203 	 1.240 	 0 	 0 	 0
M2414182         10.253 	 1.220 	 0 	 0 	 0
M2414181         8.333 	 1.890 	 0 	 0 	 0
M2414180         7.933 	 1.220 	 0 	 0 	 0
M2414179         7.813 	 1.630 	 0 	 0 	 0
M2414178         7.693 	 1.860 	 0 	 0 	 0
M2414177         7.583 	 1.320 	 0 	 0 	 0
M2414176         7.513 	 1.550 	 0 	 0 	 0
M2414175         7.393 	 1.660 	 0 	 0 	 0
M2414174         7.283 	 1.640 	 0 	 0 	 0
M2414173         7.193 	 1.500 	 0 	 0 	 0
M2414172         7.053 	 1.490 	 0 	 0 	 0
M2414171         6.993 	 2.090 	 0 	 0 	 0
M2414170         6.863 	 1.570 	 0 	 0 	 0
M2414169         6.623 	 1.640 	 0 	 0 	 0
M2414168         6.523 	 1.320 	 0 	 0 	 0
M2414167         6.333 	 2.280 	 0 	 0 	 0
M2414166         5.943 	 2.000 	 0 	 0 	 0
M2414165         5.843 	 2.020 	 0 	 0 	 0
M2413195         5.563 	 2.270 	 0 	 0 	 0
M2413194         5.433 	 1.760 	 0 	 0 	 0
M2413193         5.303 	 3.540 	 0 	 0 	 0
M2413192         4.553 	 1.970 	 0 	 0 	 0
M2413191         3.513 	 1.820 	 0 	 0 	 0
M2413190         3.373 	 1.400 	 0 	 0 	 0
M2413189         1.913 	 1.330 	 0 	 0 	 0
M2413188         1.733 	 2.310 	 0 	 0 	 0
M2413187         1.553 	 1.370 	 0 	 0 	 0
M2413186         1.433 	 1.280 	 0 	 0 	 0
M2413185         0.913 	 2.230 	 0 	 0 	 0
M2324107         0.713 	 2.090 	 0 	 0 	 0
M2324106         0.613 	 1.240 	 0 	 0 	 0
M2324105         0.523 	 1.310 	 0 	 0 	 0
M2324104         0.283 	 2.600 	 0 	 0 	 0
M2324103         0.153 	 1.450 	 0 	 0 	 0
M2324022         0.013 	 1.610 	 0 	 0 	 0
M2324084         -0.017 	 2.220 	 0 	 0 	 0
M2324102         -0.197 	 1.270 	 0 	 0 	 0
M2324101         -0.377 	 1.440 	 0 	 0 	 0
M2324100         -0.397 	 1.400 	 0 	 0 	 0
M2324099         -0.597 	 2.690 	 0 	 0 	 0
M2324089         -0.617 	 3.380 	 0 	 0 	 0
M2324091         -0.847 	 4.680 	 0 	 0 	 0
M2324092         -0.857 	 4.880 	 0 	 0 	 0
M2324093         -1.237 	 3.130 	 0 	 0 	 0
M2324094         -1.547 	 2.740 	 0 	 0 	 0
M2323140         -1.997 	 3.500 	 0 	 0 	 0
M2323137         -2.337 	 3.060 	 0 	 0 	 0
M2323141         -2.517 	 3.310 	 0 	 0 	 0
J1               -2.437 	 0.000 	 0 	 0 	 0
J2               -3.788 	 0.000 	 0 	 0 	 0
Mcentrum         -1.900 	 1.000 	 0 	 0 	 0
MShell           13.000 	 1.000 	 0 	 0 	 0
MCarlsberg       13.000 	 1.000 	 0 	 0 	 0
MArla            28.000 	 1.000 	 0 	 0 	 0
MSnog            -1.500 	 3.500 	 0 	 0 	 0
MCenterNord      -0.100 	 3.500 	 0 	 0 	 0
MVest            3.200 	 3.500 	 0 	 0 	 0

 [STORAGE]
;;Name           Elev       Ymax       Y0         FUNCTIONAL A1 A2 A0 (Apond Fevap Psi Ksat IMD)   
;;-------------- ---------- ---------- ---------- ---------- ----------
B3312082BREM817  0.033 	 5.550 	 0 	 FUNCTIONAL   	 0 	 0 	 6.227
B2334118O328     -1.997 	 4.270 	 0 	 FUNCTIONAL   	 0 	 0 	 6.539
B2334099PSA256   -2.437 	 5.240 	 0 	 FUNCTIONAL   	 0 	 0 	 6.539
B2323037O398     -2.067 	 2.850 	 0 	 FUNCTIONAL   	 0 	 0 	 7.011
B2323069         -3.787 	 5.697 	 0 	 FUNCTIONAL   	 0 	 0 	 10.011
B2324035         -0.767 	 2.130 	 0 	 FUNCTIONAL   	 0 	 0 	 5.785

 [INFLOWS]
M4244001         	 FLOW             	 TS8              	 FLOW             	 1.000 	 2.850 
M4244001         	 COD              	 TS8COD           	 CONCEN           
MCarlsberg       	 FLOW             	 TS8              	 FLOW             	 1.000 	 2.850 
MCarlsberg       	 COD              	 TS5              	 CONCEN           
MVest            	 FLOW             	 TS8              	 FLOW             	 1.000 	 7.875 
MVest            	 COD              	 TS8COD           	 CONCEN           
MCenterNord      	 FLOW             	 TS8              	 FLOW             	 1.000 	 11.855 
MCenterNord      	 COD              	 TS8COD           	 CONCEN           
Mcentrum         	 FLOW             	 TS8              	 FLOW             	 1.000 	 14.685 
Mcentrum         	 COD              	 TS8COD           	 CONCEN           
MSnog            	 FLOW             	 TS8              	 FLOW             	 1.000 	 10.000 
MSnog            	 COD              	 TS8COD           	 CONCEN           
M1521008         	 FLOW             	 TS8              	 FLOW             	 1.000 	 7.875 
M1521008         	 COD              	 TS8COD           	 CONCEN           

 [POLLUTANTS]
COD              	 MG/L             	 0.000 	 0.000 	 0.000 	 0.990 	 NO               	 *                	 0.000 	 0.000 	 0.000 

 [OUTFALLS]
;;Name           Elevation  Type       Stage Data       Gated    Route To        
;;-------------- ---------- ---------- ---------------- -------- ----------------
Renseanlaeg            0         FREE                        NO                  

 [CONDUITS]
;;Name           From Node        To Node          Length     Roughness  InOffset   OutOffset  InitFlow   MaxFlow   
;;-------------- ---------------- ---------------- ---------- ---------- ---------- ---------- ---------- ----------
L5628            M4244001         M4242001         	 73.975 	 0.011 	 0.000 	 0.000 	 0.000 	 0.000
L5608            M4242001         M4242004         	 124.771 	 0.011 	 0.000 	 0.000 	 0.000 	 0.000
L5609            M4242004         M4242008         	 124.330 	 0.011 	 0.000 	 0.000 	 0.000 	 0.000
L5610            M4242008         M4242010         	 19.655 	 0.011 	 0.000 	 0.000 	 0.000 	 0.000
L5611            M4242010         M4242011         	 2.574 	 0.011 	 0.000 	 0.000 	 0.000 	 0.000
L5612            M4242011         M4242013         	 52.932 	 0.011 	 0.000 	 0.000 	 0.000 	 0.000
L5613            M4242013         M4242015         	 54.290 	 0.011 	 0.000 	 0.000 	 0.000 	 0.000
L5614            M4242015         M4242017         	 63.085 	 0.011 	 0.000 	 0.000 	 0.000 	 0.000
L5615            M4242017         M4242019         	 51.007 	 0.011 	 0.000 	 0.000 	 0.000 	 0.000
L5616            M4242019         M4224014         	 95.643 	 0.011 	 0.000 	 0.000 	 0.000 	 0.000
L5579            M4224014         M4224071         	 50.034 	 0.011 	 0.000 	 0.000 	 0.000 	 0.000
L5584            M4224071         M4224073         	 50.014 	 0.011 	 0.000 	 0.000 	 0.000 	 0.000
L5585            M4224073         M4224075         	 49.284 	 0.011 	 0.000 	 0.000 	 0.000 	 0.000
L5586            M4224075         M4224076         	 14.605 	 0.011 	 0.000 	 0.000 	 0.000 	 0.000
L5587            M4224076         M4224078         	 35.661 	 0.011 	 0.000 	 0.000 	 0.000 	 0.000
L5588            M4224078         M4224080         	 50.001 	 0.011 	 0.000 	 0.000 	 0.000 	 0.000
L5589            M4224080         M4224082         	 49.338 	 0.011 	 0.000 	 0.000 	 0.000 	 0.000
L5590            M4224082         M4224084         	 32.896 	 0.011 	 0.000 	 0.000 	 0.000 	 0.000
L5591            M4224084         M4224085         	 56.840 	 0.011 	 0.000 	 0.000 	 0.000 	 0.000
L5592            M4224085         M4222028         	 61.100 	 0.011 	 0.000 	 0.000 	 0.000 	 0.000